#       Name:                   aspirin_tleap
#       Creating user name:     Zhiye Tang
#       Creation time:          Thu Sep 17 16:19:17 2015


#       Modifying user name:    Zhiye Tang
#       Modification time:      Thu Sep 17 16:19:17 2015


@<TRIPOS>MOLECULE
aspirin_tleap
   21    21     1    0    0
SMALL
USER_CHARGES

File created by VEGA ZZ 3.0.1
@<TRIPOS>ATOM
      1 C43        -0.9870   -0.5740    0.0390 ca        1 APN        -0.2326
      2 C49        -1.0840   -1.3130   -1.2610 c         1 APN         0.6895
      3 O36        -1.7230   -2.3690   -1.3050 o         1 APN        -0.4797
      4 O37        -0.5000   -0.8070   -2.2900 oh        1 APN        -0.5683
      5 H71        -0.6060   -1.2830   -3.2990 ho        1 APN         0.4011
      6 C44        -0.2650    0.6110    0.2300 ca        1 APN         0.3749
      7 O38         0.3940    1.2490   -0.8290 os        1 APN        -0.4993
      8 C50         1.6530    0.7960   -1.1020 c         1 APN         0.7843
      9 C51         2.2320    1.5190   -2.2770 c3        1 APN        -0.4128
     10 H76         1.4410    1.5380   -3.1780 hc        1 APN         0.1204
     11 H77         2.9380    1.1550   -2.7190 hc        1 APN         0.1373
     12 H78         2.3610    2.2870   -2.1770 hc        1 APN         0.1334
     13 O39         2.1830   -0.0480   -0.4660 o         1 APN        -0.4990
     14 C45        -0.2390    1.2400    1.4630 ca        1 APN        -0.2415
     15 H72         0.2610    2.0180    1.5460 ha        1 APN         0.1613
     16 C46        -0.9230    0.6840    2.5350 ca        1 APN        -0.0185
     17 H73        -0.9010    1.1160    3.4760 ha        1 APN         0.0934
     18 C47        -1.6300   -0.4900    2.3680 ca        1 APN        -0.1238
     19 H74        -2.0900   -0.8690    3.0960 ha        1 APN         0.1042
     20 C48        -1.6620   -1.1050    1.1360 ca        1 APN        -0.0243
     21 H75        -2.1530   -1.8660    1.0430 ha        1 APN         0.0999
@<TRIPOS>BOND
     1    1    2 1
     2    1    6 1
     3    1   20 2
     4    2    3 2
     5    2    4 1
     6    4    5 1
     7    6    7 1
     8    6   14 2
     9    7    8 1
    10    8    9 1
    11    8   13 2
    12    9   10 1
    13    9   11 1
    14    9   12 1
    15   14   16 1
    16   14   15 1
    17   16   17 1
    18   16   18 2
    19   18   19 1
    20   18   20 1
    21   20   21 1
@<TRIPOS>SUBSTRUCTURE
     1 APN         1 RESIDUE           1 A     APN     0 ROOT
